omf/scratch/coservCvrDebug/RectorAlphaPhases.glm
clock {
timezone PST+8PDT;
stoptime '2000-01-02 00:00:00';
starttime '2000-01-01 00:00:00';
};

#include "schedules.glm";
#set minimum_timestep=60;
#set profiler=1;
#set relax_naming_rules=1;
module generators;
module tape;
module climate;
module residential {
implicit_enduses NONE;
};

module powerflow {
solver_method NR;
NR_iteration_limit 50;
};

object climate {
name Climate;
interpolate QUADRATIC;
tmyfile climate.tmy2;
};

object node {
phases "ABCN";
name nodeREG46602XFMR47590;
nominal_voltage 138000.0;
bustype SWING;
};

object overhead_line_conductor {
geometric_mean_radius 0.031300;
resistance 0.185900;
name davidPinneyConductor;
};

object transformer_configuration {
powerC_rating 50 kVA;
name XFMR47590transformer_configuration101;
shunt_impedance 10000+10000j;
secondary_voltage 14400.0;
connect_type SINGLE_PHASE_CENTER_TAPPED;
impedance 0.00033+0.0022j;
primary_voltage 79674.3;
powerB_rating 50 kVA;
powerA_rating 50 kVA;
};

object regulator {
phases "ABC";
from nodeREG46602XFMR47590;
name REG46602;
to nodeOHx2REG46602;
configuration REGx7105regulator_configuration297601;
};

object line_configuration {
name OHx13line_configuration401;
spacing OHx221170line_configuration524201line_spacing524202;
conductor_N OHx13line_configuration401ohlc404;
conductor_A OHx13line_configuration401ohlc404;
conductor_C OHx13line_configuration401ohlc404;
conductor_B OHx13line_configuration401ohlc404;
};

object overhead_line_conductor {
geometric_mean_radius 0.029;
resistance 0.216;
name OHx13line_configuration401ohlc404;
};


object overhead_line {
phases "ABCN";
from nodeOHx2REG46602;
name OHx13;
to nodeRECT2413OHx13;
length 64.9884;
configuration OHx13line_configuration401;
};

object fuse {
phases "ABCN";
from nodeRECT2413OHx13;
name RECT2413;
current_limit 9999.0 A;
to nodeOHx3648RECT2413;
};

object overhead_line {
phases "ABCN";
from nodeOHx3648RECT2413;
name OHx3648;
to nodeSWx301929xG9997-BOHx3648;
length 39.0635;
configuration OHx5575line_configuration13101;
};

object switch {
status CLOSED;
phases "ABCN";
from nodeSWx301929xG9997-BOHx3648;
name SWx301929xG9997-B;
to nodeSWx301929xG9997SWx301929xG9997-B;
};

object switch {
status CLOSED;
phases "ABCN";
from nodeSWx301929xG9997SWx301929xG9997-B;
name SWx301929xG9997;
to nodeOHx806SWx301929xG9997;
};

object overhead_line {
phases "ABCN";
from nodeOHx806SWx301929xG9997;
name OHx806;
to nodeOHx259106OHx806;
length 42.2397;
configuration OHx5575line_configuration13101;
};

object overhead_line {
phases "ABCN";
from nodeOHx259106OHx806;
name OHx259106;
to nodeOHx259107OHx259106;
length 14.3346;
configuration OHx5575line_configuration13101;
};

object overhead_line {
phases "ABCN";
from nodeOHx259107OHx259106;
name OHx259107;
to nodeOHx4717OHx259107;
length 165.54;
configuration OHx5575line_configuration13101;
};

object overhead_line {
phases 47N;
from nodeOHx4717OHx259107;
name OHx4717;
to nodeOHx1353OHx4717;
length 227.329;
configuration OHx5575line_configuration13101;
};

object overhead_line {
phases "ABCN";
from nodeOHx1353OHx4717;
name OHx1353;
to nodeOHx2820OHx1353;
length 170.797;
configuration OHx5575line_configuration13101;
};

object overhead_line {
phases "ABCN";
from nodeOHx2820OHx1353;
name OHx2820;
to nodeOHx1371OHx2820;
length 223.178;
configuration OHx5575line_configuration13101;
};

object overhead_line {
phases "ABCN";
from nodeOHx1371OHx2820;
name OHx1371;
to nodeOHx1142OHx1371;
length 203.069;
configuration OHx5575line_configuration13101;
};

object overhead_line {
phases "ABCN";
from nodeOHx1142OHx1371;
name OHx1142;
to nodeOHx185509OHx1142;
length 194.893;
configuration OHx5575line_configuration13101;
};

object overhead_line {
phases "BN";
from nodeOHx185509OHx1142;
name OHx185509;
to nodeFUSEx8110OHx185509;
length 10;
configuration OHx7959line_configuration130701;
};

object fuse {
phases "BN";
from nodeFUSEx8110OHx185509;
name FUSEx8110;
current_limit 9999.0 A;
to nodeOHx185510FUSEx8110;
};

object overhead_line {
phases N;
from nodeOHx185510FUSEx8110;
name OHx185510;
to nodeOTx381671OHx185510;
length 558.75;
configuration OHx7959line_configuration130701;
};

object transformer {
phases "BC";
from nodeOTx381671OHx185510;
name OTx381671;
to nodeUGSx189397OTx381671;
configuration OTx190050transformer_configuration130801;
};

object underground_line {
phases "BC";
from nodeUGSx189397OTx381671;
name UGSx189397;
to node0021354903002UGSx189397;
length 218.991;
configuration UGSx54540line_configuration262101;
};

object load {
phases "BCN";
name 0021354903002;
parent node0021354903002UGSx189397;
load_class R;
constant_power_C 100;
constant_power_B 100;
constant_power_A 100;
nominal_voltage 120;
};

object overhead_line {
phases "ABCN";
from nodeOHx185509OHx1142;
name OHx563-S7120;
to nodeOHx563OHx563-S7120;
length 10;
configuration OHx5575line_configuration13101;
};

object overhead_line {
phases "ABCN";
from nodeOHx563OHx563-S7120;
name OHx563;
to nodeOHx3072OHx563;
length 183.24;
configuration OHx5575line_configuration13101;
};

object overhead_line {
phases "ABCN";
from nodeOHx3072OHx563;
name OHx3072;
to nodeOHx2072OHx3072;
length 244.707;
configuration OHx5575line_configuration13101;
};

object overhead_line {
phases "ABCN";
from nodeOHx2072OHx3072;
name OHx2072;
to nodeOHx4676OHx2072;
length 257.828;
configuration OHx5575line_configuration13101;
};

object overhead_line {
phases "ABCN";
from nodeOHx4676OHx2072;
name OHx4676;
to nodeOHx4722OHx4676;
length 249.185;
configuration OHx5575line_configuration13101;
};

object overhead_line {
phases "ABCN";
from nodeOHx4722OHx4676;
name OHx4722;
to nodeOHx349OHx4722;
length 250.168;
configuration OHx5575line_configuration13101;
};

object overhead_line {
phases "ABCN";
from nodeOHx349OHx4722;
name OHx349;
to nodeOHx4627OHx349;
length 220.771;
configuration OHx5575line_configuration13101;
};

object overhead_line {
phases "ABCN";
from nodeOHx4627OHx349;
name OHx4627;
to nodeOHx3082OHx4627;
length 221.617;
configuration OHx5575line_configuration13101;
};

object overhead_line {
phases "ABCN";
from nodeOHx3082OHx4627;
name OHx3082;
to nodeOHx3868OHx3082;
length 155.125;
configuration OHx5575line_configuration13101;
};

object overhead_line {
phases "ABCN";
from nodeOHx3868OHx3082;
name OHx3868;
to nodeOHx2714OHx3868;
length 145.074;
configuration OHx5575line_configuration13101;
};

object overhead_line {
phases "ABCN";
from nodeOHx2714OHx3868;
name OHx2714;
to nodeOHx5652OHx2714;
length 235.168;
configuration OHx5575line_configuration13101;
};

object overhead_line {
phases "ABCN";
from nodeOHx5652OHx2714;
name OHx5652;
to nodeOHx1339OHx5652;
length 230.736;
configuration OHx5575line_configuration13101;
};

object overhead_line {
phases "ABCN";
from nodeOHx1339OHx5652;
name OHx1339;
to nodeOHx2464OHx1339;
length 147.682;
configuration OHx5575line_configuration13101;
};

object overhead_line {
phases "ABCN";
from nodeOHx2464OHx1339;
name OHx2464;
to nodeOHx2799OHx2464;
length 204.58;
configuration OHx5575line_configuration13101;
};

object overhead_line {
phases "ABCN";
from nodeOHx2799OHx2464;
name OHx2799;
to nodeOHx5631OHx2799;
length 265.51;
configuration OHx5575line_configuration13101;
};

object overhead_line {
phases "ABCN";
from nodeOHx5631OHx2799;
name OHx5631;
to nodeOHx3886OHx5631;
length 142.778;
configuration OHx5575line_configuration13101;
};

object overhead_line {
phases "ABCN";
from nodeOHx3886OHx5631;
name OHx3886;
to nodeOHx5653OHx3886;
length 142.309;
configuration OHx5575line_configuration13101;
};

object overhead_line {
phases "ABCN";
from nodeOHx5653OHx3886;
name OHx5653;
to nodeOHx4760OHx5653;
length 192.518;
configuration OHx5575line_configuration13101;
};

object overhead_line {
phases "ABCN";
from nodeOHx4760OHx5653;
name OHx4760;
to nodeOHx1416OHx4760;
length 178.748;
configuration OHx5575line_configuration13101;
};

object overhead_line {
phases "ABCN";
from nodeOHx1416OHx4760;
name OHx1416;
to nodeOHx3479OHx1416;
length 58.7328;
configuration OHx221346line_configuration300701;
};

object overhead_line {
phases "ABCN";
from nodeOHx3479OHx1416;
name OHx3479;
to nodeOHx772OHx3479;
length 47.0548;
configuration OHx221346line_configuration300701;
};

object overhead_line {
phases "ABCN";
from nodeOHx772OHx3479;
name OHx772;
to nodeOHx4302OHx772;
length 262.163;
configuration OHx221346line_configuration300701;
};

object overhead_line {
phases "ABCN";
from nodeOHx4302OHx772;
name OHx4302;
to nodeOHx1175OHx4302;
length 286.538;
configuration OHx221346line_configuration300701;
};

object overhead_line {
phases "ABCN";
from nodeOHx1175OHx4302;
name OHx1175;
to nodeOHx3054OHx1175;
length 249.001;
configuration OHx221346line_configuration300701;
};

object overhead_line {
phases "ABCN";
from nodeOHx3054OHx1175;
name OHx3054;
to nodeOHx1301OHx3054;
length 261.836;
configuration OHx221346line_configuration300701;
};

object overhead_line {
phases "ABCN";
from nodeOHx1301OHx3054;
name OHx1301;
to nodeOHx3895OHx1301;
length 266.244;
configuration OHx221346line_configuration300701;
};

object overhead_line {
phases "ABCN";
from nodeOHx3895OHx1301;
name OHx3895;
to nodeOHx2641OHx3895;
length 255.814;
configuration OHx221346line_configuration300701;
};

object overhead_line {
phases "ABCN";
from nodeOHx2641OHx3895;
name OHx2641;
to nodeOHx2132OHx2641;
length 268.046;
configuration OHx221346line_configuration300701;
};

object overhead_line {
phases "ABCN";
from nodeOHx2132OHx2641;
name OHx2132;
to nodeOHx1069OHx2132;
length 259.405;
configuration OHx221346line_configuration300701;
};

object overhead_line {
phases "ABCN";
from nodeOHx1069OHx2132;
name OHx1069;
to nodeOHx3910OHx1069;
length 211.172;
configuration OHx221346line_configuration300701;
};

object overhead_line {
phases "ABC";
from nodeOHx3910OHx1069;
name OHx3910;
to nodeUGx431107OHx3910;
length 164.82;
configuration OHx221346line_configuration300701;
};

object underground_line {
phases "ABC";
from nodeUGx431107OHx3910;
name UGx431107;
to nodeSWx18903xG3041-BUGx431107;
length 10;
configuration UGSx54540line_configuration262101;
};

object switch {
status CLOSED;
phases "ABCN";
from nodeSWx18903xG3041-BUGx431107;
name SWx18903xG3041-B;
to nodeSWx18903xG3041SWx18903xG3041-B;
};

object switch {
status CLOSED;
phases "ABC";
from nodeSWx18903xG3041SWx18903xG3041-B;
name SWx18903xG3041;
to nodeUGx431109SWx18903xG3041;
};

object underground_line {
phases "ABC";
from nodeUGx431109SWx18903xG3041;
name UGx431109;
to nodeSWx18902xG3042-BUGx431109;
length 298.489;
configuration UGSx54540line_configuration262101;
};

object switch {
status CLOSED;
phases "ABCN";
from nodeSWx18902xG3042-BUGx431109;
name SWx18902xG3042-B;
to nodeSWx18902xG3042SWx18902xG3042-B;
};

object switch {
status CLOSED;
phases "ABC";
from nodeSWx18902xG3042SWx18902xG3042-B;
name SWx18902xG3042;
to nodeUGx431110SWx18902xG3042;
};

object underground_line {
phases "ABC";
from nodeUGx431110SWx18902xG3042;
name UGx431110;
to nodeOHx4000UGx431110;
length 10;
configuration UGSx54540line_configuration262101;
};

object overhead_line {
phases "ABCN";
from nodeOHx4000UGx431110;
name OHx4000;
to nodeOHx5564OHx4000;
length 85.9351;
configuration OHx221346line_configuration300701;
};

object overhead_line {
phases "ABCN";
from nodeOHx5564OHx4000;
name OHx5564;
to nodeOHx619OHx5564;
length 87.0456;
configuration OHx221346line_configuration300701;
};

object overhead_line {
phases "ABCN";
from nodeOHx619OHx5564;
name OHx619;
to nodeOHx4365OHx619;
length 222.499;
configuration OHx221346line_configuration300701;
};

object overhead_line {
phases "ABCN";
from nodeOHx4365OHx619;
name OHx4365;
to nodeOHx3135OHx4365;
length 74.8134;
configuration OHx221346line_configuration300701;
};

object overhead_line {
phases "ABCN";
from nodeOHx3135OHx4365;
name OHx3135;
to nodeOHx3024OHx3135;
length 103.958;
configuration OHx221346line_configuration300701;
};

object overhead_line {
phases "ABCN";
from nodeOHx3024OHx3135;
name OHx3024;
to nodeOHx5509OHx3024;
length 83.9875;
configuration OHx221346line_configuration300701;
};

object overhead_line {
phases "ABCN";
from nodeOHx5509OHx3024;
name OHx5509;
to nodeOHx665OHx5509;
length 283.784;
configuration OHx221346line_configuration300701;
};

object overhead_line {
phases "ABCN";
from nodeOHx665OHx5509;
name OHx665;
to nodeOHx4943OHx665;
length 290.069;
configuration OHx221346line_configuration300701;
};

object overhead_line {
phases "ABCN";
from nodeOHx4943OHx665;
name OHx4943;
to nodeOHx5792OHx4943;
length 284.211;
configuration OHx221346line_configuration300701;
};

object overhead_line {
phases "ABCN";
from nodeOHx5792OHx4943;
name OHx5792;
to nodeOHx6092OHx5792;
length 268.495;
configuration OHx221346line_configuration300701;
};

object overhead_line {
phases "ABCN";
from nodeOHx6092OHx5792;
name OHx6092;
to nodeOHx4605OHx6092;
length 286.058;
configuration OHx221346line_configuration300701;
};

object overhead_line {
phases "ABCN";
from nodeOHx4605OHx6092;
name OHx4605;
to nodeOHx1018OHx4605;
length 274.171;
configuration OHx221346line_configuration300701;
};

object overhead_line {
phases "ABCN";
from nodeOHx1018OHx4605;
name OHx1018;
to nodeOHx3404OHx1018;
length 272.215;
configuration OHx221346line_configuration300701;
};

object overhead_line {
phases "ABCN";
from nodeOHx3404OHx1018;
name OHx3404;
to nodeOHx3700OHx3404;
length 268.825;
configuration OHx221346line_configuration300701;
};

object overhead_line {
phases "ABCN";
from nodeOHx3700OHx3404;
name OHx3700;
to nodeOHx191OHx3700;
length 42.3416;
configuration OHx5575line_configuration13101;
};

object overhead_line {
phases "ABCN";
from nodeOHx191OHx3700;
name OHx191;
to nodeOHx5463OHx191;
length 50.7207;
configuration OHx5575line_configuration13101;
};

object overhead_line {
phases "ABCN";
from nodeOHx5463OHx191;
name OHx5463;
to nodeOHx5593OHx5463;
length 258.824;
configuration OHx5575line_configuration13101;
};

object overhead_line {
phases "ABCN";
from nodeOHx5593OHx5463;
name OHx5593;
to nodeOHx4059OHx5593;
length 229.416;
configuration OHx5575line_configuration13101;
};

object overhead_line {
phases "ABCN";
from nodeOHx4059OHx5593;
name OHx4059;
to nodeOHx1943OHx4059;
length 282.36;
configuration OHx5575line_configuration13101;
};

object overhead_line {
phases "ABCN";
from nodeOHx1943OHx4059;
name OHx1943;
to nodeOHx252593OHx1943;
length 271.468;
configuration OHx5575line_configuration13101;
};

object overhead_line {
phases "ABCN";
from nodeOHx252593OHx1943;
name OHx252593;
to nodeOHx252594OHx252593;
length 192.892;
configuration OHx5575line_configuration13101;
};

object overhead_line {
phases "ABCN";
from nodeOHx252594OHx252593;
name OHx252594;
to nodeOHx252595OHx252594;
length 13.0796;
configuration OHx5575line_configuration13101;
};

object overhead_line {
phases "ABCN";
from nodeOHx252595OHx252594;
name OHx252595;
to nodeOHx252596OHx252595;
length 247.795;
configuration OHx5575line_configuration13101;
};

object overhead_line {
phases "ABCN";
from nodeOHx252596OHx252595;
name OHx252596;
to nodeOHx1174OHx252596;
length 286.386;
configuration OHx5575line_configuration13101;
};

object overhead_line {
phases "ABCN";
from nodeOHx1174OHx252596;
name OHx1174;
to nodeOHx5050OHx1174;
length 252.128;
configuration OHx5575line_configuration13101;
};

object overhead_line {
phases "ABCN";
from nodeOHx5050OHx1174;
name OHx5050;
to nodeOHx2266OHx5050;
length 36.9047;
configuration OHx5575line_configuration13101;
};

object overhead_line {
phases "ABCN";
from nodeOHx2266OHx5050;
name OHx2266;
to nodeOHx1458OHx2266;
length 45.1792;
configuration OHx5575line_configuration13101;
};

object overhead_line {
phases "ABCN";
from nodeOHx1458OHx2266;
name OHx1458;
to nodeOHx4188OHx1458;
length 278.104;
configuration OHx5575line_configuration13101;
};

object overhead_line {
phases "ABCN";
from nodeOHx4188OHx1458;
name OHx4188;
to nodeOHx4151OHx4188;
length 282.979;
configuration OHx5575line_configuration13101;
};

object overhead_line {
phases "ABCN";
from nodeOHx4151OHx4188;
name OHx4151;
to nodeOHx3410OHx4151;
length 46.6335;
configuration OHx221346line_configuration300701;
};

object overhead_line {
phases "ABCN";
from nodeOHx3410OHx4151;
name OHx3410;
to nodeOHx3166OHx3410;
length 271.265;
configuration OHx221346line_configuration300701;
};

object overhead_line {
phases "ABCN";
from nodeOHx3166OHx3410;
name OHx3166;
to nodeOHx773OHx3166;
length 287.244;
configuration OHx221346line_configuration300701;
};

object overhead_line {
phases "ABCN";
from nodeOHx773OHx3166;
name OHx773;
to nodeOHx1102OHx773;
length 247.266;
configuration OHx221346line_configuration300701;
};

object overhead_line {
phases "ABCN";
from nodeOHx1102OHx773;
name OHx1102;
to nodeOHx438OHx1102;
length 236.365;
configuration OHx221346line_configuration300701;
};

object overhead_line {
phases "ABCN";
from nodeOHx438OHx1102;
name OHx438;
to nodeSWx18619xG3044-BOHx438;
length 283.226;
configuration OHx221346line_configuration300701;
};

object switch {
status CLOSED;
phases "ABCN";
from nodeSWx18619xG3044-BOHx438;
name SWx18619xG3044-B;
to nodeSWx18619xG3044SWx18619xG3044-B;
};

object switch {
status CLOSED;
phases "ABC";
from nodeSWx18619xG3044SWx18619xG3044-B;
name SWx18619xG3044;
to nodeUGx8492SWx18619xG3044;
};

object underground_line {
phases "ABC";
from nodeUGx8492SWx18619xG3044;
name UGx8492;
to nodeSWx18620xG3045-BUGx8492;
length 727.395;
configuration UGSx54540line_configuration262101;
};

object switch {
status CLOSED;
phases "ABCN";
from nodeSWx18620xG3045-BUGx8492;
name SWx18620xG3045-B;
to nodeSWx18620xG3045SWx18620xG3045-B;
};

object switch {
status CLOSED;
phases "ABCN";
from nodeSWx18620xG3045SWx18620xG3045-B;
name SWx18620xG3045;
to nodeOHx144SWx18620xG3045;
};

object overhead_line {
phases "ABCN";
from nodeOHx144SWx18620xG3045;
name OHx144;
to nodeOHx895OHx144;
length 271.553;
configuration OHx221346line_configuration300701;
};

object overhead_line {
phases "ABCN";
from nodeOHx895OHx144;
name OHx895;
to nodeOHx5096OHx895;
length 251.315;
configuration OHx221346line_configuration300701;
};

object overhead_line {
phases "ABCN";
from nodeOHx5096OHx895;
name OHx5096;
to nodeOHx722OHx5096;
length 225.612;
configuration OHx221346line_configuration300701;
};

object overhead_line {
phases "ABCN";
from nodeOHx722OHx5096;
name OHx722;
to nodeOHx2010OHx722;
length 195.19;
configuration OHx221346line_configuration300701;
};

object overhead_line {
phases "ABCN";
from nodeOHx2010OHx722;
name OHx2010;
to nodeOHx3988OHx2010;
length 186.677;
configuration OHx221346line_configuration300701;
};

object overhead_line {
phases "ABCN";
from nodeOHx3988OHx2010;
name OHx3988;
to nodeOHx52869OHx3988;
length 113.261;
configuration OHx221346line_configuration300701;
};

object overhead_line {
phases "AN";
from nodeOHx52869OHx3988;
name OHx52869;
to nodeFUSEx8112OHx52869;
length 10;
configuration OHx254819line_configuration150201;
};

object fuse {
phases "AN";
from nodeFUSEx8112OHx52869;
name FUSEx8112;
current_limit 9999.0 A;
to nodeOHx252885FUSEx8112;
};

object overhead_line {
phases "AN";
from nodeOHx252885FUSEx8112;
name OHx252885;
to nodeOHx252887OHx252885;
length 51.046;
configuration OHx254819line_configuration150201;
};

object overhead_line {
phases 14N;
from nodeOHx252887OHx252885;
name OHx252887;
to nodeOHx252888OHx252887;
length 148.965;
configuration OHx254819line_configuration150201;
};

object transformer {
phases "ABN";
from nodeOHx252888OHx252887;
name OTx188319;
to nodeOHSx56741OTx188319;
configuration OTx190050transformer_configuration130801;
};

object transformer {
phases "AB";
from nodeOHx252887OHx252885;
name OTx191397;
to nodeUGSx84201OTx191397;
configuration OTx190050transformer_configuration130801;
};

object underground_line {
phases "AB";
from nodeUGSx84201OTx191397;
name UGSx84201;
to node0021353681002UGSx84201;
length 17.6806;
configuration UGSx54540line_configuration262101;
};

object load {
phases "ABN";
name 0021353681002;
parent node0021353681002UGSx84201;
load_class R;
constant_power_C 100;
constant_power_B 2734.47;
constant_power_A 2734.47;
nominal_voltage 120;
};

object underground_line {
phases "AB";
from nodeUGSx84201OTx191397;
name UGSx84457;
to node0021353681001UGSx84457;
length 57.5874;
configuration UGSx54540line_configuration262101;
};

object load {
phases "ABN";
name 0021353681001;
parent node0021353681001UGSx84457;
load_class R;
constant_power_C 100;
constant_power_B 2800.77;
constant_power_A 2800.77;
nominal_voltage 120;
};

object overhead_line {
phases "ABCN";
from nodeOHx52869OHx3988;
name OHx252889;
to nodeOHx252891OHx252889;
length 293.477;
configuration OHx221346line_configuration300701;
};

object overhead_line {
phases "ABCN";
from nodeOHx252891OHx252889;
name OHx252891;
to nodeOHx252893OHx252891;
length 222.145;
configuration OHx221346line_configuration300701;
};

object overhead_line {
phases "ABCN";
from nodeOHx252893OHx252891;
name OHx252893;
to nodeOHx252895OHx252893;
length 241.699;
configuration OHx221346line_configuration300701;
};

object overhead_line {
phases "ABCN";
from nodeOHx252895OHx252893;
name OHx252895;
to nodeOHx253217OHx252895;
length 248.467;
configuration OHx221346line_configuration300701;
};

object overhead_line {
phases "ABCN";
from nodeOHx253217OHx252895;
name OHx253217;
to nodeOHx253221OHx253217;
length 202.514;
configuration OHx221346line_configuration300701;
};

object overhead_line {
phases "ABCN";
from nodeOHx253221OHx253217;
name OHx253221;
to nodeOHx127932OHx253221;
length 62.9987;
configuration OHx221346line_configuration300701;
};

object overhead_line {
phases "ABCN";
from nodeOHx127932OHx253221;
name OHx127932;
to nodeCAPx17732OHx127932;
length 10;
configuration OHx221339line_configuration516601;
};

object capacitor {
control VOLT;
phases "ABCN";
name CAPx17732;
parent nodeCAPx17732OHx127932;
pt_phase 7N;
time_delay 300.0;
nominal_voltage 2400;
voltage_set_low 2340.0;
control_level INDIVIDUAL;
phases_connected 7N;
dwell_time 0.0;
voltage_set_high 2350.0;
};

object overhead_line {
phases "ABCN";
from nodeOHx127932OHx253221;
name OHx253222;
to nodeOHx253223OHx253222;
length 255.293;
configuration OHx221346line_configuration300701;
};

object overhead_line {
phases 47N;
from nodeOHx253223OHx253222;
name OHx253223;
to nodeOHx253225OHx253223;
length 174.412;
configuration OHx221346line_configuration300701;
};

object overhead_line {
phases "ABCN";
from nodeOHx253225OHx253223;
name OHx253225;
to nodeOHx253226OHx253225;
length 146.281;
configuration OHx221346line_configuration300701;
};

object overhead_line {
phases "ABCN";
from nodeOHx253226OHx253225;
name OHx253226;
to nodeOHx5575OHx253226;
length 53.642;
configuration OHx221346line_configuration300701;
};

object line_configuration {
name OHx5575line_configuration13101;
spacing OHx221170line_configuration524201line_spacing524202;
conductor_N OHSx16064line_configuration239001ohlc239004;
conductor_A OHSx16064line_configuration239001ohlc239004;
conductor_C OHSx16064line_configuration239001ohlc239004;
conductor_B OHSx16064line_configuration239001ohlc239004;
};

object overhead_line {
phases "ABCN";
from nodeOHx5575OHx253226;
name OHx5575;
to nodeOHx5088OHx5575;
length 192.83;
configuration OHx5575line_configuration13101;
};

object overhead_line {
phases "ABCN";
from nodeOHx5088OHx5575;
name OHx5088;
to nodeRCLx651OHx5088;
length 196.481;
configuration OHx221339line_configuration516601;
};

object fuse {
phases "ABCN";
from nodeRCLx651OHx5088;
name RCLx651;
current_limit 9999.0 A;
to nodeOHx3523RCLx651;
};

object overhead_line {
phases "ABCN";
from nodeOHx3523RCLx651;
name OHx3523;
to nodeOHx3362OHx3523;
length 204.66;
configuration OHx221339line_configuration516601;
};

object overhead_line {
phases "ABCN";
from nodeOHx3362OHx3523;
name OHx3362;
to nodeOHx6091OHx3362;
length 201.792;
configuration OHx221339line_configuration516601;
};

object overhead_line {
phases "ABCN";
from nodeOHx6091OHx3362;
name OHx6091;
to nodeOHx4580OHx6091;
length 256.757;
configuration OHx221339line_configuration516601;
};

object overhead_line {
phases "ABCN";
from nodeOHx4580OHx6091;
name OHx4580;
to nodeOHx4792OHx4580;
length 257.962;
configuration OHx221339line_configuration516601;
};

object overhead_line {
phases 27N;
from nodeOHx4792OHx4580;
name OHx4792;
to nodeOHx5801OHx4792;
length 259.517;
configuration OHx221339line_configuration516601;
};

object overhead_line {
phases "ABCN";
from nodeOHx5801OHx4792;
name OHx5801;
to nodeOHx1468OHx5801;
length 264.31;
configuration OHx221339line_configuration516601;
};

object overhead_line {
phases "ABCN";
from nodeOHx1468OHx5801;
name OHx1468;
to nodeOHx5074OHx1468;
length 262.206;
configuration OHx221339line_configuration516601;
};

object overhead_line {
phases "ABCN";
from nodeOHx5074OHx1468;
name OHx5074;
to nodeOHx3452OHx5074;
length 256.514;
configuration OHx221339line_configuration516601;
};

object overhead_line {
phases "ABCN";
from nodeOHx3452OHx5074;
name OHx3452;
to nodeOHx4485OHx3452;
length 257.527;
configuration OHx221339line_configuration516601;
};

object overhead_line {
phases "ABCN";
from nodeOHx4485OHx3452;
name OHx4485;
to nodeSWx18625xG3062-BOHx4485;
length 259.046;
configuration OHx221339line_configuration516601;
};

object switch {
status CLOSED;
phases "ABCN";
from nodeSWx18625xG3062-BOHx4485;
name SWx18625xG3062-B;
to nodeSWx18625xG3062SWx18625xG3062-B;
};

object switch {
status CLOSED;
phases "ABCN";
from nodeSWx18625xG3062SWx18625xG3062-B;
name SWx18625xG3062;
to nodeOHx1685SWx18625xG3062;
};

object overhead_line {
phases "ABCN";
from nodeOHx1685SWx18625xG3062;
name OHx1685;
to nodeOHx5402OHx1685;
length 276.803;
configuration OHx221339line_configuration516601;
};

object overhead_line {
phases "ABCN";
from nodeOHx5402OHx1685;
name OHx5402;
to nodeOHx1509OHx5402;
length 34.9652;
configuration OHx221339line_configuration516601;
};

object line_configuration {
name OHx1509line_configuration14801;
spacing OHx221170line_configuration524201line_spacing524202;
conductor_N OHSx176419line_configuration348801ohlc348804;
conductor_A OHx220109line_configuration305801ohlc305804;
conductor_C OHx220109line_configuration305801ohlc305804;
conductor_B OHx220109line_configuration305801ohlc305804;
};

object overhead_line {
phases "ABCN";
from nodeOHx1509OHx5402;
name OHx1509;
to nodeOHx253850OHx1509;
length 117.652;
configuration OHx1509line_configuration14801;
};

object overhead_line {
phases "AN";
from nodeOHx253850OHx1509;
name OHx253850;
to nodeFUSEx7897OHx253850;
length 10;
configuration OHx571320line_configuration513801;
};

object fuse {
phases "AN";
from nodeFUSEx7897OHx253850;
name FUSEx7897;
current_limit 9999.0 A;
to nodeOHx253851FUSEx7897;
};

object overhead_line {
phases "AN";
from nodeOHx253851FUSEx7897;
name OHx253851;
to nodeOHx253849OHx253851;
length 75.5002;
configuration OHx571320line_configuration513801;
};

object overhead_line {
phases "AN";
from nodeOHx253849OHx253851;
name OHx253849;
to nodeOHx253852OHx253849;
length 252.91;
configuration OHx571320line_configuration513801;
};

object overhead_line {
phases 14N;
from nodeOHx253852OHx253849;
name OHx253852;
to nodeOHx253853OHx253852;
length 242;
configuration OHx571320line_configuration513801;
};

object transformer {
phases "ABN";
from nodeOHx253853OHx253852;
name OTx191494;
to nodeOHSx56747OTx191494;
configuration OTx190050transformer_configuration130801;
};

object underground_line {
phases "ABN";
from nodeOHSx56747OTx191494;
name UGSx63574;
to node0021354655002UGSx63574;
length 10;
configuration UGSx54540line_configuration262101;
};

object load {
phases "ABN";
name 0021354655002;
parent node0021354655002UGSx63574;
load_class R;
constant_power_C 100;
constant_power_B 100;
constant_power_A 100;
nominal_voltage 120;
};

object transformer {
phases "AB";
from nodeOHx253852OHx253849;
name OTx444996;
to nodeUGSx189368OTx444996;
configuration OTx190050transformer_configuration130801;
};

object underground_line {
phases "AB";
from nodeUGSx189368OTx444996;
name UGSx189368;
to node0021354657001UGSx189368;
length 118.622;
configuration UGSx54540line_configuration262101;
};

object load {
phases "ABN";
name 0021354657001;
parent node0021354657001UGSx189368;
load_class R;
constant_power_C 100;
constant_power_B 5279.84;
constant_power_A 5279.84;
nominal_voltage 120;
};

object overhead_line {
phases "ABCN";
from nodeOHx253850OHx1509;
name OHx254178-S463;
to nodeOHx254178OHx254178-S463;
length 10;
configuration OHx221339line_configuration516601;
};

object overhead_line {
phases "ABCN";
from nodeOHx254178OHx254178-S463;
name OHx254178;
to nodeOHx254179OHx254178;
length 131.456;
configuration OHx221339line_configuration516601;
};

object overhead_line {
phases "ABCN";
from nodeOHx254179OHx254178;
name OHx254179;
to nodeOTx202019OHx254179;
length 217.919;
configuration OHx221339line_configuration516601;
};

object transformer {
phases "AB";
from nodeOTx202019OHx254179;
name OTx202019;
to nodeUGSx1318443OTx202019;
configuration OTx190050transformer_configuration130801;
};

object underground_line {
phases "AB";
from nodeUGSx1318443OTx202019;
name UGSx1318443;
to node0021354646002UGSx1318443;
length 229.267;
configuration UGSx54540line_configuration262101;
};

object load {
phases "ABN";
name 0021354646002;
parent node0021354646002UGSx1318443;
load_class R;
constant_power_C 100;
constant_power_B 4701.51;
constant_power_A 4701.51;
nominal_voltage 120;
};

object underground_line {
phases "AB";
from nodeUGSx1318443OTx202019;
name UGSx1334520;
to nodeUGSx1334519UGSx1334520;
length 10.1657;
configuration UGSx54540line_configuration262101;
};

object underground_line {
phases "AB";
from nodeUGSx1334519UGSx1334520;
name UGSx1334519;
to node0021354657004UGSx1334519;
length 190.756;
configuration UGSx54540line_configuration262101;
};

object load {
phases "ABN";
name 0021354657004;
parent node0021354657004UGSx1334519;
load_class R;
constant_power_C 100;
constant_power_B 1871.27;
constant_power_A 1871.27;
nominal_voltage 120;
};

object overhead_line {
phases 47N;
from nodeOTx202019OHx254179;
name OHx254177-S5000;
to nodeOHx254177OHx254177-S5000;
length 232.808;
configuration OHx221339line_configuration516601;
};

object overhead_line {
phases "ABCN";
from nodeOHx254177OHx254177-S5000;
name OHx254177;
to nodeOHx254182OHx254177;
length 10;
configuration OHx221339line_configuration516601;
};

object overhead_line {
phases "ABCN";
from nodeOHx254182OHx254177;
name OHx254182;
to nodeOHx254183OHx254182;
length 188.276;
configuration OHx221339line_configuration516601;
};

object overhead_line {
phases "ABCN";
from nodeOHx254183OHx254182;
name OHx254183;
to nodeOHx23327OHx254183;
length 299.509;
configuration OHx221339line_configuration516601;
};

object overhead_line {
phases "AN";
from nodeOHx23327OHx254183;
name OHx23327;
to nodeFUSEx7898OHx23327;
length 10;
configuration OHx571320line_configuration513801;
};

object fuse {
phases "AN";
from nodeFUSEx7898OHx23327;
name FUSEx7898;
current_limit 9999.0 A;
to nodeOHx254184FUSEx7898;
};

object overhead_line {
phases "AN";
from nodeOHx254184FUSEx7898;
name OHx254184;
to nodeOHx254185OHx254184;
length 80.6246;
configuration OHx571320line_configuration513801;
};

object overhead_line {
phases N;
from nodeOHx254185OHx254184;
name OHx254185;
to nodeOTx197989OHx254185;
length 338.249;
configuration OHx571320line_configuration513801;
};

object transformer {
phases "AB";
from nodeOTx197989OHx254185;
name OTx197989;
to nodeUGSx1318447OTx197989;
configuration OTx190050transformer_configuration130801;
};

object underground_line {
phases "AB";
from nodeUGSx1318447OTx197989;
name UGSx1318447;
to node0021354656001UGSx1318447;
length 68.6117;
configuration UGSx54540line_configuration262101;
};

object load {
phases "ABN";
name 0021354656001;
parent node0021354656001UGSx1318447;
load_class R;
constant_power_C 100;
constant_power_B 3295.6;
constant_power_A 3295.6;
nominal_voltage 120;
};

object overhead_line {
phases "ABCN";
from nodeOHx23327OHx254183;
name OHx254186;
to nodeOHx254187OHx254186;
length 110.646;
configuration OHx221339line_configuration516601;
};

object overhead_line {
phases "ABCN";
from nodeOHx254187OHx254186;
name OHx254187;
to nodeOHx23329OHx254187;
length 313.333;
configuration OHx221339line_configuration516601;
};

object overhead_line {
phases "AN";
from nodeOHx23329OHx254187;
name OHx23329;
to nodeFUSEx7899OHx23329;
length 10;
configuration OHx254819line_configuration150201;
};

object fuse {
phases "AN";
from nodeFUSEx7899OHx23329;
name FUSEx7899;
current_limit 9999.0 A;
to nodeOHx254188FUSEx7899;
};

object overhead_line {
phases "AN";
from nodeOHx254188FUSEx7899;
name OHx254188;
to nodeOHx254167OHx254188;
length 90.9612;
configuration OHx571320line_configuration513801;
};

object overhead_line {
phases "AN";
from nodeOHx254167OHx254188;
name OHx254167;
to nodeOHx254168OHx254167;
length 279.072;
configuration OHx571320line_configuration513801;
};

object overhead_line {
phases "AN";
from nodeOHx254168OHx254167;
name OHx254168;
to nodeOHx254163OHx254168;
length 278.152;
configuration OHx571320line_configuration513801;
};

object overhead_line {
phases "AN";
from nodeOHx254163OHx254168;
name OHx254163;
to nodeOHx254165OHx254163;
length 284.689;
configuration OHx571320line_configuration513801;
};

object overhead_line {
phases "AN";
from nodeOHx254165OHx254163;
name OHx254165;
to nodeOHx254166OHx254165;
length 31.4033;
configuration OHx571320line_configuration513801;
};

object overhead_line {
phases N;
from nodeOHx254166OHx254165;
name OHx254166;
to nodeOTx194111OHx254166;
length 212.516;
configuration OHx571320line_configuration513801;
};

object transformer {
phases "AB";
from nodeOTx194111OHx254166;
name OTx194111;
to nodeUGSx20567OTx194111;
configuration OTx190050transformer_configuration130801;
};

object underground_line {
phases "AB";
from nodeUGSx20567OTx194111;
name UGSx20567;
to node0021354663001UGSx20567;
length 10;
configuration UGSx54540line_configuration262101;
};

object load {
phases "ABN";
name 0021354663001;
parent node0021354663001UGSx20567;
load_class R;
constant_power_C 100;
constant_power_B 282.41;
constant_power_A 282.41;
nominal_voltage 120;
};

object underground_line {
phases "AB";
from nodeUGSx20567OTx194111;
name UGSx72407;
to node0021354663002UGSx72407;
length 154.823;
configuration UGSx54540line_configuration262101;
};

object load {
phases "ABN";
name 0021354663002;
parent node0021354663002UGSx72407;
load_class R;
constant_power_C 100;
constant_power_B 935.637;
constant_power_A 935.637;
nominal_voltage 120;
};

object transformer {
phases "AB";
from nodeOHx254163OHx254168;
name OTx203138;
to nodeUGSx189369OTx203138;
configuration OTx190050transformer_configuration130801;
};

object underground_line {
phases "AB";
from nodeUGSx189369OTx203138;
name UGSx189369;
to node0021354657002UGSx189369;
length 152.26;
configuration UGSx54540line_configuration262101;
};

object load {
phases "ABN";
name 0021354657002;
parent node0021354657002UGSx189369;
load_class R;
constant_power_C 100;
constant_power_B 324.158;
constant_power_A 324.158;
nominal_voltage 120;
};

object overhead_line {
phases "CN";
from nodeOHx23329OHx254187;
name OHx23331;
to nodeFUSEx7900OHx23331;
length 10;
configuration OHx221170line_configuration524201;
};

object fuse {
phases "CN";
from nodeFUSEx7900OHx23331;
name FUSEx7900;
current_limit 9999.0 A;
to nodeOHx254190FUSEx7900;
};

object overhead_line {
phases "CN";
from nodeOHx254190FUSEx7900;
name OHx254190;
to nodeOHx254191OHx254190;
length 37.5267;
configuration OHx221170line_configuration524201;
};

object overhead_line {
phases N;
from nodeOHx254191OHx254190;
name OHx254191;
to nodeOTx191470OHx254191;
length 210.07;
configuration OHx221170line_configuration524201;
};

object transformer {
phases "AC";
from nodeOTx191470OHx254191;
name OTx191470;
to nodeUGSx20060OTx191470;
configuration OTx190050transformer_configuration130801;
};

object underground_line {
phases "AC";
from nodeUGSx20060OTx191470;
name UGSx20060;
to node0021354641002UGSx20060;
length 143.46;
configuration UGSx54540line_configuration262101;
};

object load {
phases "ACN";
name 0021354641002;
parent node0021354641002UGSx20060;
load_class R;
constant_power_C 100;
constant_power_B 100;
constant_power_A 100;
nominal_voltage 120;
};

object underground_line {
phases "AC";
from nodeUGSx20060OTx191470;
name UGSx45432;
to node0021354643001UGSx45432;
length 96.2765;
configuration UGSx54540line_configuration262101;
};

object load {
phases "ACN";
name 0021354643001;
parent node0021354643001UGSx45432;
load_class R;
constant_power_C 2200.34;
constant_power_B 100;
constant_power_A 2200.34;
nominal_voltage 120;
};

object overhead_line {
phases "ABCN";
from nodeOHx23329OHx254187;
name OHx254169;
to nodeOHx254171OHx254169;
length 297.752;
configuration OHx221339line_configuration516601;
};

object overhead_line {
phases "ABCN";
from nodeOHx254171OHx254169;
name OHx254171;
to nodeOHx254172OHx254171;
length 301.48;
configuration OHx221339line_configuration516601;
};

object overhead_line {
phases "ABCN";
from nodeOHx254172OHx254171;
name OHx254172;
to nodeOHx5995OHx254172;
length 166.292;
configuration OHx221339line_configuration516601;
};

object overhead_line {
phases 37N;
from nodeOHx5995OHx254172;
name OHx5995;
to nodeOHx23335OHx5995;
length 240.96;
configuration OHx221339line_configuration516601;
};

object overhead_line {
phases "CN";
from nodeOHx23335OHx5995;
name OHx23335;
to nodeFUSEx7902OHx23335;
length 10;
configuration OHx221170line_configuration524201;
};

object fuse {
phases "CN";
from nodeFUSEx7902OHx23335;
name FUSEx7902;
current_limit 9999.0 A;
to nodeOHx23336FUSEx7902;
};

object overhead_line {
phases N;
from nodeOHx23336FUSEx7902;
name OHx23336;
to nodeOTx188910OHx23336;
length 85.9855;
configuration OHx221170line_configuration524201;
};

object transformer {
phases "AC";
from nodeOTx188910OHx23336;
name OTx188910;
to nodeUGSx35187OTx188910;
configuration OTx190050transformer_configuration130801;
};

object underground_line {
phases "AC";
from nodeUGSx35187OTx188910;
name UGSx35187;
to node0021354643007UGSx35187;
length 80.496;
configuration UGSx54540line_configuration262101;
};

object load {
phases "ACN";
name 0021354643007;
parent node0021354643007UGSx35187;
load_class R;
constant_power_C 2879.35;
constant_power_B 100;
constant_power_A 2879.35;
nominal_voltage 120;
};

object underground_line {
phases "AC";
from nodeUGSx35187OTx188910;
name UGSx89879;
to node0021354643004UGSx89879;
length 127.706;
configuration UGSx54540line_configuration262101;
};

object load {
phases "ACN";
name 0021354643004;
parent node0021354643004UGSx89879;
load_class R;
constant_power_C 1647.8;
constant_power_B 100;
constant_power_A 1647.8;
nominal_voltage 120;
};

object underground_line {
phases "AC";
from nodeUGSx35187OTx188910;
name UGSx94824;
to node0021354643011UGSx94824;
length 164.193;
configuration UGSx54540line_configuration262101;
};

object load {
phases "ACN";
name 0021354643011;
parent node0021354643011UGSx94824;
load_class R;
constant_power_C 1540.98;
constant_power_B 100;
constant_power_A 1540.98;
nominal_voltage 120;
};

object overhead_line {
phases "ABCN";
from nodeOHx23335OHx5995;
name OHx254501;
to nodeOHx254503OHx254501;
length 195.202;
configuration OHx221339line_configuration516601;
};

object overhead_line {
phases 47N;
from nodeOHx254503OHx254501;
name OHx254503;
to nodeOHx254505OHx254503;
length 303.807;
configuration OHx221339line_configuration516601;
};

object overhead_line {
phases "ABCN";
from nodeOHx254505OHx254503;
name OHx254505;
to nodeOHx254507OHx254505;
length 295.185;
configuration OHx221339line_configuration516601;
};

object overhead_line {
phases "ABCN";
from nodeOHx254507OHx254505;
name OHx254507;
to nodeOHx254508OHx254507;
length 305.157;
configuration OHx221339line_configuration516601;
};

object overhead_line {
phases "ABCN";
from nodeOHx254508OHx254507;
name OHx254508;
to nodeOHx1736OHx254508;
length 115.293;
configuration OHx221339line_configuration516601;
};

object overhead_line {
phases "ABCN";
from nodeOHx1736OHx254508;
name OHx1736;
to nodeOHx5661OHx1736;
length 186.469;
configuration OHx221339line_configuration516601;
};

object overhead_line {
phases "ABCN";
from nodeOHx5661OHx1736;
name OHx5661;
to nodeOHx5086OHx5661;
length 299.215;
configuration OHx221339line_configuration516601;
};

object overhead_line {
phases "ABCN";
from nodeOHx5086OHx5661;
name OHx5086;
to nodeOHx5612OHx5086;
length 306.653;
configuration OHx221339line_configuration516601;
};

object overhead_line {
phases "ABCN";
from nodeOHx5612OHx5086;
name OHx5612;
to nodeOHx513OHx5612;
length 282.693;
configuration OHx221339line_configuration516601;
};

object overhead_line {
phases "ABCN";
from nodeOHx513OHx5612;
name OHx513;
to nodeOHx3235OHx513;
length 185.305;
configuration OHx221339line_configuration516601;
};

object overhead_line {
phases "ABCN";
from nodeOHx3235OHx513;
name OHx3235;
to nodeOHx3100OHx3235;
length 175.51;
configuration OHx221339line_configuration516601;
};

object overhead_line {
phases "ABCN";
from nodeOHx3100OHx3235;
name OHx3100;
to nodeOHx2323OHx3100;
length 164.627;
configuration OHx221339line_configuration516601;
};

object overhead_line {
phases 27N;
from nodeOHx2323OHx3100;
name OHx2323;
to nodeOHx23345OHx2323;
length 232.526;
configuration OHx221339line_configuration516601;
};

object overhead_line {
phases "BN";
from nodeOHx23345OHx2323;
name OHx23345;
to nodeFUSEx7906OHx23345;
length 10;
configuration OHx7056line_configuration129701;
};

object fuse {
phases "BN";
from nodeFUSEx7906OHx23345;
name FUSEx7906;
current_limit 9999.0 A;
to nodeOHx23346FUSEx7906;
};

object overhead_line {
phases "BN";
from nodeOHx23346FUSEx7906;
name OHx23346;
to nodeOHx7228OHx23346;
length 85.0128;
configuration OHx7056line_configuration129701;
};

object overhead_line {
phases 62N;
from nodeOHx7228OHx23346;
name OHx7228;
to nodeOHx15612OHx7228;
length 239.023;
configuration OHx7056line_configuration129701;
};

object overhead_line {
phases 62N;
from nodeOHx15612OHx7228;
name OHx15612;
to nodeOHx8281OHx15612;
length 265.763;
configuration OHx7056line_configuration129701;
};

object overhead_line {
phases "BN";
from nodeOHx8281OHx15612;
name OHx8281;
to nodeOHx10758OHx8281;
length 255.737;
configuration OHx7056line_configuration129701;
};

object overhead_line {
phases N;
from nodeOHx10758OHx8281;
name OHx10758;
to nodeOTx190530OHx10758;
length 119.268;
configuration OHx7056line_configuration129701;
};

object transformer {
phases "BC";
from nodeOTx190530OHx10758;
name OTx190530;
to nodeUGSx62633OTx190530;
configuration OTx190050transformer_configuration130801;
};

object underground_line {
phases "BC";
from nodeUGSx62633OTx190530;
name UGSx62633;
to node0021354569001UGSx62633;
length 68.8389;
configuration UGSx54540line_configuration262101;
};

object load {
phases "BCN";
name 0021354569001;
parent node0021354569001UGSx62633;
load_class R;
constant_power_C 3025.47;
constant_power_B 3025.47;
constant_power_A 100;
nominal_voltage 120;
};

object underground_line {
phases "BC";
from nodeUGSx62633OTx190530;
name UGSx116950;
to node0021354570007UGSx116950;
length 53.041;
configuration UGSx54540line_configuration262101;
};

object load {
phases "BCN";
name 0021354570007;
parent node0021354570007UGSx116950;
load_class R;
constant_power_C 2808.14;
constant_power_B 2808.14;
constant_power_A 100;
nominal_voltage 120;
};

object overhead_line {
phases "BN";
from nodeOHx10758OHx8281;
name OHx11075;
to nodeOHx8969OHx11075;
length 186.577;
configuration OHx7056line_configuration129701;
};

object overhead_line {
phases "BN";
from nodeOHx8969OHx11075;
name OHx8969;
to nodeOHx10010OHx8969;
length 190.456;
configuration OHx7056line_configuration129701;
};

object overhead_line {
phases N;
from nodeOHx10010OHx8969;
name OHx10010;
to nodeOTx194435OHx10010;
length 119.602;
configuration OHx7056line_configuration129701;
};

object transformer {
phases "BCN";
from nodeOTx194435OHx10010;
name OTx194435;
to nodeOHSx57066OTx194435;
configuration OTx190050transformer_configuration130801;
};

object line_configuration {
name OHSx69870line_configuration25301;
spacing OHx221170line_configuration524201line_spacing524202;
conductor_N OHSx237217line_configuration129101ohlc129106;
conductor_A davidPinneyConductor;
conductor_C OHSx176419line_configuration348801ohlc348804;
conductor_B OHSx176419line_configuration348801ohlc348804;
};

object overhead_line {
phases "BCN";
from nodeOHSx57066OTx194435;
name OHSx69870;
to nodeOHSx217379OHSx69870;
length 72.3458;
configuration OHSx69870line_configuration25301;
};

object overhead_line {
phases "BCN";
from nodeOHSx217379OHSx69870;
name OHSx217379;
to node0021354664001OHSx217379;
length 10;
configuration OHSx237217line_configuration129101;
};

object load {
phases "BCN";
name 0021354664001;
parent node0021354664001OHSx217379;
load_class R;
constant_power_C 5881.49;
constant_power_B 5881.49;
constant_power_A 100;
nominal_voltage 120;
};

object underground_line {
phases "BCN";
from nodeOHSx57066OTx194435;
name UGSx54027;
to node0021354688004UGSx54027;
length 151.202;
configuration UGSx54540line_configuration262101;
};

object load {
phases "BCN";
name 0021354688004;
parent node0021354688004UGSx54027;
load_class R;
constant_power_C 2277.7;
constant_power_B 2277.7;
constant_power_A 100;
nominal_voltage 120;
};

object overhead_line {
phases "BCN";
from nodeOHSx57066OTx194435;
name OHSx188578-S18295;
to nodeOHSx188578OHSx188578-S18295;
length 70.4641;
configuration OHSx107940line_configuration116201;
};

object overhead_line {
phases "BCN";
from nodeOHSx188578OHSx188578-S18295;
name OHSx188578;
to node0021354688005OHSx188578;
length 10;
configuration OHSx107940line_configuration116201;
};

object load {
phases "BCN";
name 0021354688005;
parent node0021354688005OHSx188578;
load_class R;
constant_power_C 100;
constant_power_B 100;
constant_power_A 100;
nominal_voltage 120;
};

object overhead_line {
phases "BN";
from nodeOHx10010OHx8969;
name OHx15631;
to nodeOHx11404OHx15631;
length 186.234;
configuration OHx7056line_configuration129701;
};

object overhead_line {
phases "BN";
from nodeOHx11404OHx15631;
name OHx11404;
to nodeOHx8328OHx11404;
length 259.027;
configuration OHx7056line_configuration129701;
};

object overhead_line {
phases N;
from nodeOHx8328OHx11404;
name OHx8328;
to nodeOTx188666OHx8328;
length 214.531;
configuration OHx7056line_configuration129701;
};

object transformer {
phases "BC";
from nodeOTx188666OHx8328;
name OTx188666;
to nodeUGSx34145OTx188666;
configuration OTx190050transformer_configuration130801;
};

object underground_line {
phases "BC";
from nodeUGSx34145OTx188666;
name UGSx34145;
to node0021354577002UGSx34145;
length 154.881;
configuration UGSx54540line_configuration262101;
};

object load {
phases "BCN";
name 0021354577002;
parent node0021354577002UGSx34145;
load_class R;
constant_power_C 100;
constant_power_B 100;
constant_power_A 100;
nominal_voltage 120;
};

object underground_line {
phases "BC";
from nodeUGSx34145OTx188666;
name UGSx79731;
to node0021354662001UGSx79731;
length 172.704;
configuration UGSx54540line_configuration262101;
};

object load {
phases "BCN";
name 0021354662001;
parent node0021354662001UGSx79731;
load_class R;
constant_power_C 2453.28;
constant_power_B 2453.28;
constant_power_A 100;
nominal_voltage 120;
};

object underground_line {
phases "BC";
from nodeUGSx34145OTx188666;
name UGSx299271;
to node0021354577007UGSx299271;
length 101.12;
configuration UGSx54540line_configuration262101;
};

object load {
phases "BCN";
name 0021354577007;
parent node0021354577007UGSx299271;
load_class R;
constant_power_C 100;
constant_power_B 100;
constant_power_A 100;
nominal_voltage 120;
};

object overhead_line {
phases "BN";
from nodeOHx8328OHx11404;
name OHx10061;
to nodeOHx11260OHx10061;
length 254.168;
configuration OHx7056line_configuration129701;
};

object overhead_line {
phases "BN";
from nodeOHx11260OHx10061;
name OHx11260;
to nodeOHx10596OHx11260;
length 190.531;
configuration OHx7056line_configuration129701;
};

object overhead_line {
phases N;
from nodeOHx10596OHx11260;
name OHx10596;
to nodeOTx200902OHx10596;
length 178.971;
configuration OHx7056line_configuration129701;
};

object transformer {
phases "BCN";
from nodeOTx200902OHx10596;
name OTx200902;
to nodeOHSx112099OTx200902;
configuration OTx190050transformer_configuration130801;
};

object overhead_line {
phases "BCN";
from nodeOHSx112099OTx200902;
name OHSx112099;
to node0021354577004OHSx112099;
length 67.8483;
configuration OHSx237217line_configuration129101;
};

object load {
phases "BCN";
name 0021354577004;
parent node0021354577004OHSx112099;
load_class R;
constant_power_C 3704.48;
constant_power_B 3704.48;
constant_power_A 100;
nominal_voltage 120;
};

object overhead_line {
phases "BCN";
from nodeOHSx112099OTx200902;
name OHSx137388;
to node0021354590003OHSx137388;
length 30.6423;
configuration OHSx107940line_configuration116201;
};

object load {
phases "BCN";
name 0021354590003;
parent node0021354590003OHSx137388;
load_class R;
constant_power_C 2594.49;
constant_power_B 2594.49;
constant_power_A 100;
nominal_voltage 120;
};

object underground_line {
phases "BCN";
from nodeOHSx112099OTx200902;
name UGSx110697;
to node0021354577003UGSx110697;
length 24.0966;
configuration UGSx54540line_configuration262101;
};

object load {
phases "BCN";
name 0021354577003;
parent node0021354577003UGSx110697;
load_class R;
constant_power_C 3135.98;
constant_power_B 3135.98;
constant_power_A 100;
nominal_voltage 120;
};

object overhead_line {
phases N;
from nodeOHx10596OHx11260;
name OHx13969;
to nodeOTx192116OHx13969;
length 127.897;
configuration OHx7056line_configuration129701;
};

object transformer {
phases "BC";
from nodeOTx192116OHx13969;
name OTx192116;
to nodeUGSx71510OTx192116;
configuration OTx190050transformer_configuration130801;
};

object underground_line {
phases "BC";
from nodeUGSx71510OTx192116;
name UGSx71510;
to node0021354567001UGSx71510;
length 72.9118;
configuration UGSx54540line_configuration262101;
};

object load {
phases "BCN";
name 0021354567001;
parent node0021354567001UGSx71510;
load_class R;
constant_power_C 2076.33;
constant_power_B 2076.33;
constant_power_A 100;
nominal_voltage 120;
};

object underground_line {
phases "BC";
from nodeUGSx71510OTx192116;
name UGSx90084;
to node0021354578008UGSx90084;
length 69.1562;
configuration UGSx54540line_configuration262101;
};

object load {
phases "BCN";
name 0021354578008;
parent node0021354578008UGSx90084;
load_class R;
constant_power_C 100;
constant_power_B 100;
constant_power_A 100;
nominal_voltage 120;
};

object underground_line {
phases "BC";
from nodeUGSx71510OTx192116;
name UGSx384722;
to node0021354578009UGSx384722;
length 64.0604;
configuration UGSx54540line_configuration262101;
};

object load {
phases "BCN";
name 0021354578009;
parent node0021354578009UGSx384722;
load_class R;
constant_power_C 1755.85;
constant_power_B 1755.85;
constant_power_A 100;
nominal_voltage 120;
};

object overhead_line {
phases "BN";
from nodeOHx10596OHx11260;
name OHx15529;
to nodeOHx14089OHx15529;
length 191.09;
configuration OHx7056line_configuration129701;
};

object overhead_line {
phases "BN";
from nodeOHx14089OHx15529;
name OHx14089;
to nodeOHx8128OHx14089;
length 191.991;
configuration OHx7056line_configuration129701;
};

object overhead_line {
phases "BN";
from nodeOHx8128OHx14089;
name OHx8128;
to nodeOHx8353OHx8128;
length 188.708;
configuration OHx7056line_configuration129701;
};

object overhead_line {
phases N;
from nodeOHx8353OHx8128;
name OHx8353;
to nodeOTx188872OHx8353;
length 200.048;
configuration OHx7056line_configuration129701;
};

object transformer {
phases "BC";
from nodeOTx188872OHx8353;
name OTx188872;
to nodeUGSx35704OTx188872;
configuration OTx190050transformer_configuration130801;
};

object underground_line {
phases "BC";
from nodeUGSx35704OTx188872;
name UGSx35704;
to node0021354570006UGSx35704;
length 43.7467;
configuration UGSx54540line_configuration262101;
};

object load {
phases "BCN";
name 0021354570006;
parent node0021354570006UGSx35704;
load_class R;
constant_power_C 100;
constant_power_B 100;
constant_power_A 100;
nominal_voltage 120;
};

object underground_line {
phases "BC";
from nodeUGSx35704OTx188872;
name UGSx80008;
to node0021354570003UGSx80008;
length 187.892;
configuration UGSx54540line_configuration262101;
};

object load {
phases "BCN";
name 0021354570003;
parent node0021354570003UGSx80008;
load_class R;
constant_power_C 100;
constant_power_B 100;
constant_power_A 100;
nominal_voltage 120;
};

object overhead_line {
phases "BN";
from nodeOHx8353OHx8128;
name OHx10069;
to nodeOHx17422OHx10069;
length 253.136;
configuration OHx7056line_configuration129701;
};

object overhead_line {
phases "BN";
from nodeOHx17422OHx10069;
name OHx17422;
to nodeOHx12938OHx17422;
length 250.677;
configuration OHx7056line_configuration129701;
};

object overhead_line {
phases N;
from nodeOHx12938OHx17422;
name OHx12938;
to nodeOTx200023OHx12938;
length 73.6173;
configuration OHx7056line_configuration129701;
};

object transformer {
phases "BC";
from nodeOTx200023OHx12938;
name OTx200023;
to nodeUGSx33882OTx200023;
configuration OTx190050transformer_configuration130801;
};

object underground_line {
phases "BC";
from nodeUGSx33882OTx200023;
name UGSx33882;
to node0021354588001UGSx33882;
length 10;
configuration UGSx54540line_configuration262101;
};

object load {
phases "BCN";
name 0021354588001;
parent node0021354588001UGSx33882;
load_class R;
constant_power_C 238.207;
constant_power_B 238.207;
constant_power_A 100;
nominal_voltage 120;
};

object underground_line {
phases "BC";
from nodeUGSx33882OTx200023;
name UGSx287067;
to node0021354588007UGSx287067;
length 94.3453;
configuration UGSx54540line_configuration262101;
};

object load {
phases "BCN";
name 0021354588007;
parent node0021354588007UGSx287067;
load_class R;
constant_power_C 116.648;
constant_power_B 116.648;
constant_power_A 100;
nominal_voltage 120;
};

object overhead_line {
phases N;
from nodeOHx12938OHx17422;
name OHx13204;
to nodeOTx200224OHx13204;
length 188.36;
configuration OHx7056line_configuration129701;
};

object transformer {
phases "BC";
from nodeOTx200224OHx13204;
name OTx200224;
to nodeUGSx23521OTx200224;
configuration OTx190050transformer_configuration130801;
};

object underground_line {
phases "BC";
from nodeUGSx23521OTx200224;
name UGSx23521;
to node0021354577005UGSx23521;
length 67.3486;
configuration UGSx54540line_configuration262101;
};

object load {
phases "BCN";
name 0021354577005;
parent node0021354577005UGSx23521;
load_class R;
constant_power_C 3482.24;
constant_power_B 3482.24;
constant_power_A 100;
nominal_voltage 120;
};

object underground_line {
phases "BC";
from nodeUGSx23521OTx200224;
name UGSx44368;
to node0021354578005UGSx44368;
length 153.448;
configuration UGSx54540line_configuration262101;
};

object load {
phases "BCN";
name 0021354578005;
parent node0021354578005UGSx44368;
load_class R;
constant_power_C 2565.02;
constant_power_B 2565.02;
constant_power_A 100;
nominal_voltage 120;
};

object overhead_line {
phases "BN";
from nodeOHx12938OHx17422;
name OHx16811;
to nodeOHx9844OHx16811;
length 188.949;
configuration OHx7056line_configuration129701;
};

object overhead_line {
phases 62N;
from nodeOHx9844OHx16811;
name OHx9844;
to nodeOHx7379OHx9844;
length 195.53;
configuration OHx7056line_configuration129701;
};

object overhead_line {
phases "BN";
from nodeOHx7379OHx9844;
name OHx7379;
to nodeOHx12952OHx7379;
length 250.568;
configuration OHx7056line_configuration129701;
};

object overhead_line {
phases N;
from nodeOHx12952OHx7379;
name OHx12952;
to nodeOTx195429OHx12952;
length 179.869;
configuration OHx7056line_configuration129701;
};

object transformer {
phases "BC";
from nodeOTx195429OHx12952;
name OTx195429;
to nodeUGSx19271OTx195429;
configuration OTx190050transformer_configuration130801;
};

object underground_line {
phases "BC";
from nodeUGSx19271OTx195429;
name UGSx19271;
to node0021354568004UGSx19271;
length 110.072;
configuration UGSx54540line_configuration262101;
};

object load {
phases "BCN";
name 0021354568004;
parent node0021354568004UGSx19271;
load_class R;
constant_power_C 2168.42;
constant_power_B 2168.42;
constant_power_A 100;
nominal_voltage 120;
};

object underground_line {
phases "BC";
from nodeUGSx19271OTx195429;
name UGSx62455;
to node0021354560001UGSx62455;
length 67.0055;
configuration UGSx54540line_configuration262101;
};

object load {
phases "BCN";
name 0021354560001;
parent node0021354560001UGSx62455;
load_class R;
constant_power_C 1679.73;
constant_power_B 1679.73;
constant_power_A 100;
nominal_voltage 120;
};

object overhead_line {
phases "BN";
from nodeOHx12952OHx7379;
name OHx13654;
to nodeOHx89428OHx13654;
length 314.368;
configuration OHx7056line_configuration129701;
};

object overhead_line {
phases "BCN";
from nodeOHx89428OHx13654;
name OHx89428;
to nodeOTx267553OHx89428;
length 63.9715;
configuration OHx7056line_configuration129701;
};

object transformer {
phases "BC";
from nodeOTx267553OHx89428;
name OTx267553;
to nodeUGSx20012OTx267553;
configuration OTx190050transformer_configuration130801;
};

object underground_line {
phases "BC";
from nodeUGSx20012OTx267553;
name UGSx20012;
to node0021354588002UGSx20012;
length 120.703;
configuration UGSx54540line_configuration262101;
};

object load {
phases "BCN";
name 0021354588002;
parent node0021354588002UGSx20012;
load_class R;
constant_power_C 2534.32;
constant_power_B 2534.32;
constant_power_A 100;
nominal_voltage 120;
};

object underground_line {
phases "BC";
from nodeUGSx20012OTx267553;
name UGSx287066;
to node0021354588006UGSx287066;
length 115.324;
configuration UGSx54540line_configuration262101;
};

object load {
phases "BCN";
name 0021354588006;
parent node0021354588006UGSx287066;
load_class R;
constant_power_C 1485.72;
constant_power_B 1485.72;
constant_power_A 100;
nominal_voltage 120;
};

object transformer {
phases "BCN";
from nodeOHx89428OHx13654;
name OTx195832;
to nodeOHSx154029OTx195832;
configuration OTx190050transformer_configuration130801;
};

object overhead_line {
phases "BCN";
from nodeOHSx154029OTx195832;
name OHSx154029;
to node0021354557007OHSx154029;
length 44.787;
configuration OHSx107940line_configuration116201;
};

object load {
phases "BCN";
name 0021354557007;
parent node0021354557007OHSx154029;
load_class R;
constant_power_C 1364.16;
constant_power_B 1364.16;
constant_power_A 100;
nominal_voltage 120;
};

object underground_line {
phases "BCN";
from nodeOHSx154029OTx195832;
name UGSx101409;
to node0021354557004UGSx101409;
length 157.148;
configuration UGSx54540line_configuration262101;
};

object load {
phases "BCN";
name 0021354557004;
parent node0021354557004UGSx101409;
load_class R;
constant_power_C 3228.07;
constant_power_B 3228.07;
constant_power_A 100;
nominal_voltage 120;
};

object overhead_line {
phases N;
from nodeOHx12952OHx7379;
name OHx17381;
to nodeOTx193190OHx17381;
length 134.443;
configuration OHx7056line_configuration129701;
};

object transformer {
phases "BC";
from nodeOTx193190OHx17381;
name OTx193190;
to nodeUGSx17967OTx193190;
configuration OTx190050transformer_configuration130801;
};

object underground_line {
phases "BC";
from nodeUGSx17967OTx193190;
name UGSx17967;
to node0021354568001UGSx17967;
length 75.844;
configuration UGSx54540line_configuration262101;
};

object load {
phases "BCN";
name 0021354568001;
parent node0021354568001UGSx17967;
load_class R;
constant_power_C 2820.42;
constant_power_B 2820.42;
constant_power_A 100;
nominal_voltage 120;
};

object overhead_line {
phases "BCN";
from nodeOHx7379OHx9844;
name OHx17297;
to nodeOTx196796OHx17297;
length 216.136;
configuration OHx7056line_configuration129701;
};

object transformer {
phases "BC";
from nodeOTx196796OHx17297;
name OTx196796;
to nodeUGSx43746OTx196796;
configuration OTx190050transformer_configuration130801;
};

object underground_line {
phases "BC";
from nodeUGSx43746OTx196796;
name UGSx43746;
to node0021354560002UGSx43746;
length 34.3577;
configuration UGSx54540line_configuration262101;
};

object load {
...